reduced_networks/ieee37/74pct/dss/Loads.dss
! Phase-wise constant-PQ injections aggregated by assignment; positive DSS power is consumption.
new Load.agg_4 phases=1 bus1=799.1 conn=wye kv=2.771281292110204 kw=7.5e-12 kvar=-2.5e-12 model=1
new Load.agg_5 phases=1 bus1=799.2 conn=wye kv=2.771281292110204 kw=-9e-10 kvar=5.699999999999999e-10 model=1
new Load.agg_6 phases=1 bus1=799.3 conn=wye kv=2.771281292110204 kw=-1.5e-11 kvar=2.75e-11 model=1
new Load.agg_7 phases=1 bus1=709.1 conn=wye kv=2.771281292110204 kw=64.72129619531501 kvar=16.896252105705 model=1
new Load.agg_8 phases=1 bus1=709.2 conn=wye kv=2.771281292110204 kw=85.87638082518251 kvar=40.3558053103425 model=1
new Load.agg_9 phases=1 bus1=709.3 conn=wye kv=2.771281292110204 kw=59.26356081949 kvar=41.45706263314249 model=1
new Load.agg_10 phases=1 bus1=775.1 conn=wye kv=0.2771281292110204 kw=-0 kvar=-7.5e-12 model=1
new Load.agg_11 phases=1 bus1=775.2 conn=wye kv=0.2771281292110204 kw=-2.5e-12 kvar=-2.5e-12 model=1
new Load.agg_12 phases=1 bus1=775.3 conn=wye kv=0.2771281292110204 kw=-2.5e-12 kvar=-2.5e-12 model=1
new Load.agg_13 phases=1 bus1=701.1 conn=wye kv=2.771281292110204 kw=207.8388338682425 kvar=183.8968211965975 model=1
new Load.agg_14 phases=1 bus1=701.2 conn=wye kv=2.771281292110204 kw=141.544299247995 kvar=73.36021581587001 model=1
new Load.agg_15 phases=1 bus1=701.3 conn=wye kv=2.771281292110204 kw=280.6175205219325 kvar=57.7433013193375 model=1
new Load.agg_16 phases=1 bus1=702.1 conn=wye kv=2.771281292110204 kw=125.4593795454525 kvar=83.70913700319751 model=1
new Load.agg_17 phases=1 bus1=702.2 conn=wye kv=2.771281292110204 kw=108.703560651245 kvar=52.6550776561725 model=1
new Load.agg_18 phases=1 bus1=702.3 conn=wye kv=2.771281292110204 kw=150.0186684662425 kvar=44.71533303912251 model=1
new Load.agg_19 phases=1 bus1=703.1 conn=wye kv=2.771281292110204 kw=134.0609676761725 kvar=80.73567403929751 model=1
new Load.agg_20 phases=1 bus1=703.2 conn=wye kv=2.771281292110204 kw=73.35302888290001 kvar=67.5581633592125 model=1
new Load.agg_21 phases=1 bus1=703.3 conn=wye kv=2.771281292110204 kw=121.561166980105 kvar=13.410613097265 model=1
new Load.agg_22 phases=1 bus1=720.1 conn=wye kv=2.771281292110204 kw=36.9419098810675 kvar=55.78220068808249 model=1
new Load.agg_23 phases=1 bus1=720.2 conn=wye kv=2.771281292110204 kw=144.1690556549875 kvar=-5.50628983407 model=1
new Load.agg_24 phases=1 bus1=720.3 conn=wye kv=2.771281292110204 kw=147.8926456074475 kvar=110.8280146740175 model=1
new Load.agg_25 phases=1 bus1=734.1 conn=wye kv=2.771281292110204 kw=248.1650842720175 kvar=119.2239607844925 model=1
new Load.agg_26 phases=1 bus1=734.2 conn=wye kv=2.771281292110204 kw=124.7838325023325 kvar=141.330173252075 model=1
new Load.agg_27 phases=1 bus1=734.3 conn=wye kv=2.771281292110204 kw=181.03619069994 kvar=7.803498057342503 model=1
new Load.agg_28 phases=1 bus1=799r.1 conn=wye kv=2.771281292110204 kw=2.25e-11 kvar=-2.75e-11 model=1
new Load.agg_29 phases=1 bus1=799r.2 conn=wye kv=2.771281292110204 kw=-4.5725e-09 kvar=-9.249999999999999e-10 model=1
new Load.agg_30 phases=1 bus1=799r.3 conn=wye kv=2.771281292110204 kw=-4.25e-11 kvar=-3.75e-11 model=1
